* NGSPICE file created from pmu_fsm.ext - technology: sky130A

* Black-box entry subcircuit for sky130_fd_sc_hd__tapvpwrvgnd_1 abstract view
.subckt sky130_fd_sc_hd__tapvpwrvgnd_1 VGND VPWR
.ends

* Black-box entry subcircuit for sky130_fd_sc_hd__decap_3 abstract view
.subckt sky130_fd_sc_hd__decap_3 VGND VNB VPB VPWR
.ends

* Black-box entry subcircuit for sky130_fd_sc_hd__nand4_2 abstract view
.subckt sky130_fd_sc_hd__nand4_2 A B C D VGND VNB VPB VPWR Y
.ends

* Black-box entry subcircuit for sky130_fd_sc_hd__nor2_2 abstract view
.subckt sky130_fd_sc_hd__nor2_2 A B VGND VNB VPB VPWR Y
.ends

* Black-box entry subcircuit for sky130_fd_sc_hd__a31o_2 abstract view
.subckt sky130_fd_sc_hd__a31o_2 A1 A2 A3 B1 VGND VNB VPB VPWR X
.ends

* Black-box entry subcircuit for sky130_fd_sc_hd__fill_1 abstract view
.subckt sky130_fd_sc_hd__fill_1 VGND VNB VPB VPWR
.ends

* Black-box entry subcircuit for sky130_fd_sc_hd__dfrtp_2 abstract view
.subckt sky130_fd_sc_hd__dfrtp_2 CLK D RESET_B VGND VNB VPB VPWR Q
.ends

* Black-box entry subcircuit for sky130_fd_sc_hd__dlygate4sd3_1 abstract view
.subckt sky130_fd_sc_hd__dlygate4sd3_1 A VGND VNB VPB VPWR X
.ends

* Black-box entry subcircuit for sky130_fd_sc_hd__clkbuf_16 abstract view
.subckt sky130_fd_sc_hd__clkbuf_16 A VGND VNB VPB VPWR X
.ends

* Black-box entry subcircuit for sky130_fd_sc_hd__a31oi_2 abstract view
.subckt sky130_fd_sc_hd__a31oi_2 A1 A2 A3 B1 VGND VNB VPB VPWR Y
.ends

* Black-box entry subcircuit for sky130_fd_sc_hd__nand2_2 abstract view
.subckt sky130_fd_sc_hd__nand2_2 A B VGND VNB VPB VPWR Y
.ends

* Black-box entry subcircuit for sky130_fd_sc_hd__a21oi_2 abstract view
.subckt sky130_fd_sc_hd__a21oi_2 A1 A2 B1 VGND VNB VPB VPWR Y
.ends

* Black-box entry subcircuit for sky130_fd_sc_hd__fill_2 abstract view
.subckt sky130_fd_sc_hd__fill_2 VGND VNB VPB VPWR
.ends

* Black-box entry subcircuit for sky130_fd_sc_hd__clkdlybuf4s25_1 abstract view
.subckt sky130_fd_sc_hd__clkdlybuf4s25_1 A VGND VNB VPB VPWR X
.ends

* Black-box entry subcircuit for sky130_fd_sc_hd__and3_2 abstract view
.subckt sky130_fd_sc_hd__and3_2 A B C VGND VNB VPB VPWR X
.ends

* Black-box entry subcircuit for sky130_fd_sc_hd__and4bb_2 abstract view
.subckt sky130_fd_sc_hd__and4bb_2 A_N B_N C D VGND VNB VPB VPWR X
.ends

* Black-box entry subcircuit for sky130_fd_sc_hd__conb_1 abstract view
.subckt sky130_fd_sc_hd__conb_1 VGND VNB VPB VPWR HI LO
.ends

* Black-box entry subcircuit for sky130_fd_sc_hd__nand3_2 abstract view
.subckt sky130_fd_sc_hd__nand3_2 A B C VGND VNB VPB VPWR Y
.ends

* Black-box entry subcircuit for sky130_fd_sc_hd__o22a_2 abstract view
.subckt sky130_fd_sc_hd__o22a_2 A1 A2 B1 B2 VGND VNB VPB VPWR X
.ends

* Black-box entry subcircuit for sky130_fd_sc_hd__o21ai_2 abstract view
.subckt sky130_fd_sc_hd__o21ai_2 A1 A2 B1 VGND VNB VPB VPWR Y
.ends

* Black-box entry subcircuit for sky130_fd_sc_hd__inv_2 abstract view
.subckt sky130_fd_sc_hd__inv_2 A VGND VNB VPB VPWR Y
.ends

* Black-box entry subcircuit for sky130_fd_sc_hd__dfstp_2 abstract view
.subckt sky130_fd_sc_hd__dfstp_2 CLK D SET_B VGND VNB VPB VPWR Q
.ends

* Black-box entry subcircuit for sky130_fd_sc_hd__xor2_2 abstract view
.subckt sky130_fd_sc_hd__xor2_2 A B VGND VNB VPB VPWR X
.ends

* Black-box entry subcircuit for sky130_fd_sc_hd__buf_2 abstract view
.subckt sky130_fd_sc_hd__buf_2 A VGND VNB VPB VPWR X
.ends

* Black-box entry subcircuit for sky130_fd_sc_hd__clkbuf_4 abstract view
.subckt sky130_fd_sc_hd__clkbuf_4 A VGND VNB VPB VPWR X
.ends

* Black-box entry subcircuit for sky130_fd_sc_hd__o211a_2 abstract view
.subckt sky130_fd_sc_hd__o211a_2 A1 A2 B1 C1 VGND VNB VPB VPWR X
.ends

* Black-box entry subcircuit for sky130_fd_sc_hd__or4_2 abstract view
.subckt sky130_fd_sc_hd__or4_2 A B C D VGND VNB VPB VPWR X
.ends

* Black-box entry subcircuit for sky130_fd_sc_hd__and4_2 abstract view
.subckt sky130_fd_sc_hd__and4_2 A B C D VGND VNB VPB VPWR X
.ends

* Black-box entry subcircuit for sky130_fd_sc_hd__a221oi_4 abstract view
.subckt sky130_fd_sc_hd__a221oi_4 A1 A2 B1 B2 C1 VGND VNB VPB VPWR Y
.ends

* Black-box entry subcircuit for sky130_fd_sc_hd__a21o_2 abstract view
.subckt sky130_fd_sc_hd__a21o_2 A1 A2 B1 VGND VNB VPB VPWR X
.ends

* Black-box entry subcircuit for sky130_fd_sc_hd__buf_1 abstract view
.subckt sky130_fd_sc_hd__buf_1 A VGND VNB VPB VPWR X
.ends

* Black-box entry subcircuit for sky130_fd_sc_hd__o31a_2 abstract view
.subckt sky130_fd_sc_hd__o31a_2 A1 A2 A3 B1 VGND VNB VPB VPWR X
.ends

* Black-box entry subcircuit for sky130_fd_sc_hd__and4b_2 abstract view
.subckt sky130_fd_sc_hd__and4b_2 A_N B C D VGND VNB VPB VPWR X
.ends

* Black-box entry subcircuit for sky130_fd_sc_hd__o21a_2 abstract view
.subckt sky130_fd_sc_hd__o21a_2 A1 A2 B1 VGND VNB VPB VPWR X
.ends

* Black-box entry subcircuit for sky130_fd_sc_hd__or3_2 abstract view
.subckt sky130_fd_sc_hd__or3_2 A B C VGND VNB VPB VPWR X
.ends

* Black-box entry subcircuit for sky130_fd_sc_hd__and2b_2 abstract view
.subckt sky130_fd_sc_hd__and2b_2 A_N B VGND VNB VPB VPWR X
.ends

* Black-box entry subcircuit for sky130_fd_sc_hd__buf_4 abstract view
.subckt sky130_fd_sc_hd__buf_4 A VGND VNB VPB VPWR X
.ends

* Black-box entry subcircuit for sky130_fd_sc_hd__or3_4 abstract view
.subckt sky130_fd_sc_hd__or3_4 A B C VGND VNB VPB VPWR X
.ends

* Black-box entry subcircuit for sky130_fd_sc_hd__nand2b_2 abstract view
.subckt sky130_fd_sc_hd__nand2b_2 A_N B VGND VNB VPB VPWR Y
.ends

* Black-box entry subcircuit for sky130_fd_sc_hd__a211oi_2 abstract view
.subckt sky130_fd_sc_hd__a211oi_2 A1 A2 B1 C1 VGND VNB VPB VPWR Y
.ends

* Black-box entry subcircuit for sky130_fd_sc_hd__a211o_2 abstract view
.subckt sky130_fd_sc_hd__a211o_2 A1 A2 B1 C1 VGND VNB VPB VPWR X
.ends

* Black-box entry subcircuit for sky130_fd_sc_hd__nor3_4 abstract view
.subckt sky130_fd_sc_hd__nor3_4 A B C VGND VNB VPB VPWR Y
.ends

* Black-box entry subcircuit for sky130_fd_sc_hd__o22ai_4 abstract view
.subckt sky130_fd_sc_hd__o22ai_4 A1 A2 B1 B2 VGND VNB VPB VPWR Y
.ends

* Black-box entry subcircuit for sky130_fd_sc_hd__a22oi_2 abstract view
.subckt sky130_fd_sc_hd__a22oi_2 A1 A2 B1 B2 VGND VNB VPB VPWR Y
.ends

* Black-box entry subcircuit for sky130_fd_sc_hd__nor2b_2 abstract view
.subckt sky130_fd_sc_hd__nor2b_2 A B_N VGND VNB VPB VPWR Y
.ends

* Black-box entry subcircuit for sky130_fd_sc_hd__and2_2 abstract view
.subckt sky130_fd_sc_hd__and2_2 A B VGND VNB VPB VPWR X
.ends

* Black-box entry subcircuit for sky130_fd_sc_hd__o2bb2ai_2 abstract view
.subckt sky130_fd_sc_hd__o2bb2ai_2 A1_N A2_N B1 B2 VGND VNB VPB VPWR Y
.ends

* Black-box entry subcircuit for sky130_fd_sc_hd__clkbuf_2 abstract view
.subckt sky130_fd_sc_hd__clkbuf_2 A VGND VNB VPB VPWR X
.ends

* Black-box entry subcircuit for sky130_fd_sc_hd__or3b_2 abstract view
.subckt sky130_fd_sc_hd__or3b_2 A B C_N VGND VNB VPB VPWR X
.ends

* Black-box entry subcircuit for sky130_fd_sc_hd__o31ai_2 abstract view
.subckt sky130_fd_sc_hd__o31ai_2 A1 A2 A3 B1 VGND VNB VPB VPWR Y
.ends

* Black-box entry subcircuit for sky130_fd_sc_hd__o32ai_2 abstract view
.subckt sky130_fd_sc_hd__o32ai_2 A1 A2 A3 B1 B2 VGND VNB VPB VPWR Y
.ends

* Black-box entry subcircuit for sky130_fd_sc_hd__inv_4 abstract view
.subckt sky130_fd_sc_hd__inv_4 A VGND VNB VPB VPWR Y
.ends

* Black-box entry subcircuit for sky130_fd_sc_hd__o2bb2a_4 abstract view
.subckt sky130_fd_sc_hd__o2bb2a_4 A1_N A2_N B1 B2 VGND VNB VPB VPWR X
.ends

* Black-box entry subcircuit for sky130_fd_sc_hd__a21oi_4 abstract view
.subckt sky130_fd_sc_hd__a21oi_4 A1 A2 B1 VGND VNB VPB VPWR Y
.ends

* Black-box entry subcircuit for sky130_fd_sc_hd__and3b_2 abstract view
.subckt sky130_fd_sc_hd__and3b_2 A_N B C VGND VNB VPB VPWR X
.ends

* Black-box entry subcircuit for sky130_fd_sc_hd__a311o_2 abstract view
.subckt sky130_fd_sc_hd__a311o_2 A1 A2 A3 B1 C1 VGND VNB VPB VPWR X
.ends

* Black-box entry subcircuit for sky130_fd_sc_hd__o311a_2 abstract view
.subckt sky130_fd_sc_hd__o311a_2 A1 A2 A3 B1 C1 VGND VNB VPB VPWR X
.ends

* Black-box entry subcircuit for sky130_fd_sc_hd__nand4_4 abstract view
.subckt sky130_fd_sc_hd__nand4_4 A B C D VGND VNB VPB VPWR Y
.ends

* Black-box entry subcircuit for sky130_fd_sc_hd__a311oi_2 abstract view
.subckt sky130_fd_sc_hd__a311oi_2 A1 A2 A3 B1 C1 VGND VNB VPB VPWR Y
.ends

* Black-box entry subcircuit for sky130_fd_sc_hd__o22ai_2 abstract view
.subckt sky130_fd_sc_hd__o22ai_2 A1 A2 B1 B2 VGND VNB VPB VPWR Y
.ends

* Black-box entry subcircuit for sky130_fd_sc_hd__o21ba_2 abstract view
.subckt sky130_fd_sc_hd__o21ba_2 A1 A2 B1_N VGND VNB VPB VPWR X
.ends

* Black-box entry subcircuit for sky130_fd_sc_hd__o21bai_2 abstract view
.subckt sky130_fd_sc_hd__o21bai_2 A1 A2 B1_N VGND VNB VPB VPWR Y
.ends

* Black-box entry subcircuit for sky130_fd_sc_hd__a32oi_2 abstract view
.subckt sky130_fd_sc_hd__a32oi_2 A1 A2 A3 B1 B2 VGND VNB VPB VPWR Y
.ends

* Black-box entry subcircuit for sky130_fd_sc_hd__or2_2 abstract view
.subckt sky130_fd_sc_hd__or2_2 A B VGND VNB VPB VPWR X
.ends

* Black-box entry subcircuit for sky130_fd_sc_hd__or4b_2 abstract view
.subckt sky130_fd_sc_hd__or4b_2 A B C D_N VGND VNB VPB VPWR X
.ends

* Black-box entry subcircuit for sky130_fd_sc_hd__or2b_2 abstract view
.subckt sky130_fd_sc_hd__or2b_2 A B_N VGND VNB VPB VPWR X
.ends

.subckt pmu_fsm VGND VPWR clk clk_gate_en clk_stable dvfs_ctrl[0] dvfs_ctrl[1] error
+ pwr_gate_en pwr_stable pwr_state[0] pwr_state[1] req_idle req_off req_sleep reset_ctrl
+ reset_n retention_en retention_ready retention_restore retention_save seq_busy wake_up
XTAP_TAPCELL_ROW_24_117 VGND VPWR sky130_fd_sc_hd__tapvpwrvgnd_1
XFILLER_26_63 VGND VGND VPWR VPWR sky130_fd_sc_hd__decap_3
XFILLER_26_85 VGND VGND VPWR VPWR sky130_fd_sc_hd__decap_3
XPHY_EDGE_ROW_21_Left_48 VGND VGND VPWR VPWR sky130_fd_sc_hd__decap_3
X_294_ _322_/Q _321_/Q _320_/Q _294_/D VGND VGND VPWR VPWR _297_/B sky130_fd_sc_hd__nand4_2
XTAP_TAPCELL_ROW_21_109 VGND VPWR sky130_fd_sc_hd__tapvpwrvgnd_1
XTAP_TAPCELL_ROW_12_87 VGND VPWR sky130_fd_sc_hd__tapvpwrvgnd_1
XFILLER_10_114 VGND VGND VPWR VPWR sky130_fd_sc_hd__decap_3
XTAP_TAPCELL_ROW_8_77 VGND VPWR sky130_fd_sc_hd__tapvpwrvgnd_1
X_277_ _277_/A _298_/A VGND VGND VPWR VPWR _316_/D sky130_fd_sc_hd__nor2_2
X_200_ _181_/Y _213_/A _198_/Y _199_/Y VGND VGND VPWR VPWR _200_/X sky130_fd_sc_hd__a31o_2
XFILLER_0_68 VGND VGND VPWR VPWR sky130_fd_sc_hd__decap_3
XFILLER_9_11 VGND VGND VPWR VPWR sky130_fd_sc_hd__decap_3
XFILLER_9_55 VGND VGND VPWR VPWR sky130_fd_sc_hd__fill_1
XFILLER_9_66 VGND VGND VPWR VPWR sky130_fd_sc_hd__decap_3
XFILLER_9_77 VGND VGND VPWR VPWR sky130_fd_sc_hd__decap_3
XPHY_EDGE_ROW_24_Left_51 VGND VGND VPWR VPWR sky130_fd_sc_hd__decap_3
X_329_ _337_/CLK _329_/D fanout55/X VGND VGND VPWR VPWR _329_/Q sky130_fd_sc_hd__dfrtp_2
XFILLER_18_75 VGND VGND VPWR VPWR sky130_fd_sc_hd__decap_3
XFILLER_20_32 VGND VGND VPWR VPWR sky130_fd_sc_hd__fill_1
Xhold63 _307_/Q VGND VGND VPWR VPWR hold63/X sky130_fd_sc_hd__dlygate4sd3_1
Xhold74 _325_/Q VGND VGND VPWR VPWR _329_/D sky130_fd_sc_hd__dlygate4sd3_1
XFILLER_13_3 VGND VGND VPWR VPWR sky130_fd_sc_hd__decap_3
XFILLER_26_109 VGND VGND VPWR VPWR sky130_fd_sc_hd__decap_3
XFILLER_15_43 VGND VGND VPWR VPWR sky130_fd_sc_hd__decap_3
XFILLER_15_87 VGND VGND VPWR VPWR sky130_fd_sc_hd__decap_3
XFILLER_16_131 VGND VGND VPWR VPWR sky130_fd_sc_hd__fill_1
XFILLER_16_153 VGND VGND VPWR VPWR sky130_fd_sc_hd__decap_3
XTAP_TAPCELL_ROW_24_118 VGND VPWR sky130_fd_sc_hd__tapvpwrvgnd_1
XFILLER_13_101 VGND VGND VPWR VPWR sky130_fd_sc_hd__decap_3
XFILLER_26_75 VGND VGND VPWR VPWR sky130_fd_sc_hd__decap_3
XFILLER_26_97 VGND VGND VPWR VPWR sky130_fd_sc_hd__decap_3
Xclkbuf_3_6__f_clk clkbuf_0_clk/X VGND VGND VPWR VPWR _336_/CLK sky130_fd_sc_hd__clkbuf_16
X_293_ _321_/Q _320_/Q _294_/D hold80/X VGND VGND VPWR VPWR _295_/A sky130_fd_sc_hd__a31oi_2
XTAP_TAPCELL_ROW_12_88 VGND VPWR sky130_fd_sc_hd__tapvpwrvgnd_1
XFILLER_12_11 VGND VGND VPWR VPWR sky130_fd_sc_hd__fill_1
XFILLER_12_66 VGND VGND VPWR VPWR sky130_fd_sc_hd__fill_1
XFILLER_12_88 VGND VGND VPWR VPWR sky130_fd_sc_hd__decap_3
XTAP_TAPCELL_ROW_8_78 VGND VPWR sky130_fd_sc_hd__tapvpwrvgnd_1
X_276_ _288_/B _288_/C VGND VGND VPWR VPWR _298_/A sky130_fd_sc_hd__nand2_2
XFILLER_23_43 VGND VGND VPWR VPWR sky130_fd_sc_hd__decap_3
XPHY_EDGE_ROW_12_Right_12 VGND VGND VPWR VPWR sky130_fd_sc_hd__decap_3
XPHY_EDGE_ROW_21_Right_21 VGND VGND VPWR VPWR sky130_fd_sc_hd__decap_3
XFILLER_0_25 VGND VGND VPWR VPWR sky130_fd_sc_hd__decap_3
X_328_ _337_/CLK _328_/D fanout55/X VGND VGND VPWR VPWR _328_/Q sky130_fd_sc_hd__dfrtp_2
X_259_ _315_/D _252_/B _313_/D VGND VGND VPWR VPWR _259_/Y sky130_fd_sc_hd__a21oi_2
XFILLER_18_32 VGND VGND VPWR VPWR sky130_fd_sc_hd__fill_1
XFILLER_18_54 VGND VGND VPWR VPWR sky130_fd_sc_hd__decap_3
Xhold64 _303_/Q VGND VGND VPWR VPWR hold64/X sky130_fd_sc_hd__dlygate4sd3_1
Xhold75 _334_/Q VGND VGND VPWR VPWR _337_/D sky130_fd_sc_hd__dlygate4sd3_1
XFILLER_6_68 VGND VGND VPWR VPWR sky130_fd_sc_hd__decap_3
XFILLER_15_11 VGND VGND VPWR VPWR sky130_fd_sc_hd__fill_1
XFILLER_15_55 VGND VGND VPWR VPWR sky130_fd_sc_hd__fill_1
XFILLER_15_66 VGND VGND VPWR VPWR sky130_fd_sc_hd__decap_3
XFILLER_25_110 VGND VGND VPWR VPWR sky130_fd_sc_hd__fill_2
XPHY_EDGE_ROW_6_Right_6 VGND VGND VPWR VPWR sky130_fd_sc_hd__decap_3
Xoutput10 hold59/X VGND VGND VPWR VPWR dvfs_ctrl[1] sky130_fd_sc_hd__clkdlybuf4s25_1
XFILLER_13_135 VGND VGND VPWR VPWR sky130_fd_sc_hd__fill_1
XFILLER_26_54 VGND VGND VPWR VPWR sky130_fd_sc_hd__fill_2
XFILLER_9_106 VGND VGND VPWR VPWR sky130_fd_sc_hd__decap_3
X_292_ _292_/A _319_/Q _292_/C VGND VGND VPWR VPWR _294_/D sky130_fd_sc_hd__and3_2
XFILLER_3_47 VGND VGND VPWR VPWR sky130_fd_sc_hd__fill_2
XFILLER_8_150 VGND VGND VPWR VPWR sky130_fd_sc_hd__decap_3
XFILLER_10_149 VGND VGND VPWR VPWR sky130_fd_sc_hd__decap_3
XFILLER_12_45 VGND VGND VPWR VPWR sky130_fd_sc_hd__decap_3
X_275_ _269_/Y _271_/X _275_/C _275_/D VGND VGND VPWR VPWR _288_/C sky130_fd_sc_hd__and4bb_2
XFILLER_0_48 VGND VGND VPWR VPWR sky130_fd_sc_hd__decap_3
XFILLER_3_3 VGND VGND VPWR VPWR sky130_fd_sc_hd__fill_2
Xpmu_fsm VGND VGND VPWR VPWR dvfs_ctrl[0] pmu_fsm/LO sky130_fd_sc_hd__conb_1
XFILLER_9_57 VGND VGND VPWR VPWR sky130_fd_sc_hd__fill_2
X_327_ _327_/CLK _327_/D fanout50/X VGND VGND VPWR VPWR _327_/Q sky130_fd_sc_hd__dfrtp_2
X_258_ _258_/A _258_/B _258_/C VGND VGND VPWR VPWR _258_/Y sky130_fd_sc_hd__nand3_2
X_189_ _229_/C _201_/A _271_/A1 _194_/B VGND VGND VPWR VPWR _190_/B sky130_fd_sc_hd__o22a_2
XFILLER_18_22 VGND VGND VPWR VPWR sky130_fd_sc_hd__fill_1
XFILLER_18_66 VGND VGND VPWR VPWR sky130_fd_sc_hd__decap_3
XTAP_TAPCELL_ROW_5_69 VGND VPWR sky130_fd_sc_hd__tapvpwrvgnd_1
XFILLER_6_25 VGND VGND VPWR VPWR sky130_fd_sc_hd__decap_3
Xhold65 _306_/Q VGND VGND VPWR VPWR hold65/X sky130_fd_sc_hd__dlygate4sd3_1
Xhold76 _324_/Q VGND VGND VPWR VPWR _328_/D sky130_fd_sc_hd__dlygate4sd3_1
XFILLER_15_34 VGND VGND VPWR VPWR sky130_fd_sc_hd__decap_3
XFILLER_15_78 VGND VGND VPWR VPWR sky130_fd_sc_hd__decap_3
XFILLER_16_122 VGND VGND VPWR VPWR sky130_fd_sc_hd__decap_3
XFILLER_25_155 VGND VGND VPWR VPWR sky130_fd_sc_hd__fill_2
Xoutput11 hold66/X VGND VGND VPWR VPWR error sky130_fd_sc_hd__clkdlybuf4s25_1
Xoutput9 hold69/X VGND VGND VPWR VPWR clk_gate_en sky130_fd_sc_hd__clkdlybuf4s25_1
XFILLER_22_114 VGND VGND VPWR VPWR sky130_fd_sc_hd__decap_3
XFILLER_26_66 VGND VGND VPWR VPWR sky130_fd_sc_hd__decap_3
XFILLER_26_88 VGND VGND VPWR VPWR sky130_fd_sc_hd__decap_3
X_291_ _298_/A _291_/B VGND VGND VPWR VPWR _321_/D sky130_fd_sc_hd__nor2_2
XFILLER_10_117 VGND VGND VPWR VPWR sky130_fd_sc_hd__decap_3
XFILLER_12_57 VGND VGND VPWR VPWR sky130_fd_sc_hd__decap_3
XFILLER_5_110 VGND VGND VPWR VPWR sky130_fd_sc_hd__fill_2
XFILLER_5_132 VGND VGND VPWR VPWR sky130_fd_sc_hd__decap_3
X_274_ _274_/A1 _186_/Y _273_/Y VGND VGND VPWR VPWR _275_/D sky130_fd_sc_hd__o21ai_2
X_326_ _331_/CLK _326_/D fanout54/X VGND VGND VPWR VPWR _326_/Q sky130_fd_sc_hd__dfrtp_2
X_257_ _258_/A _258_/B VGND VGND VPWR VPWR _257_/Y sky130_fd_sc_hd__nand2_2
X_188_ _254_/B VGND VGND VPWR VPWR _311_/D sky130_fd_sc_hd__inv_2
XPHY_EDGE_ROW_12_Left_39 VGND VGND VPWR VPWR sky130_fd_sc_hd__decap_3
X_309_ _331_/CLK _309_/D fanout50/X VGND VGND VPWR VPWR _309_/Q sky130_fd_sc_hd__dfstp_2
XFILLER_6_59 VGND VGND VPWR VPWR sky130_fd_sc_hd__decap_3
Xhold66 _308_/Q VGND VGND VPWR VPWR hold66/X sky130_fd_sc_hd__dlygate4sd3_1
Xhold77 _323_/Q VGND VGND VPWR VPWR _297_/A sky130_fd_sc_hd__dlygate4sd3_1
XFILLER_13_6 VGND VGND VPWR VPWR sky130_fd_sc_hd__decap_3
XFILLER_15_46 VGND VGND VPWR VPWR sky130_fd_sc_hd__decap_3
XFILLER_15_57 VGND VGND VPWR VPWR sky130_fd_sc_hd__decap_3
XFILLER_25_101 VGND VGND VPWR VPWR sky130_fd_sc_hd__decap_3
Xoutput12 hold60/X VGND VGND VPWR VPWR pwr_gate_en sky130_fd_sc_hd__clkdlybuf4s25_1
XFILLER_11_3 VGND VGND VPWR VPWR sky130_fd_sc_hd__fill_1
XFILLER_16_156 VGND VGND VPWR VPWR sky130_fd_sc_hd__fill_1
XFILLER_13_104 VGND VGND VPWR VPWR sky130_fd_sc_hd__decap_3
XFILLER_22_104 VGND VGND VPWR VPWR sky130_fd_sc_hd__decap_3
XFILLER_26_78 VGND VGND VPWR VPWR sky130_fd_sc_hd__decap_3
XPHY_EDGE_ROW_15_Left_42 VGND VGND VPWR VPWR sky130_fd_sc_hd__decap_3
XFILLER_9_119 VGND VGND VPWR VPWR sky130_fd_sc_hd__decap_3
X_290_ _290_/A _290_/B VGND VGND VPWR VPWR _291_/B sky130_fd_sc_hd__xor2_2
XPHY_EDGE_ROW_0_Left_27 VGND VGND VPWR VPWR sky130_fd_sc_hd__decap_3
X_273_ _179_/X _186_/Y _274_/A1 VGND VGND VPWR VPWR _273_/Y sky130_fd_sc_hd__o21ai_2
XFILLER_23_57 VGND VGND VPWR VPWR sky130_fd_sc_hd__decap_3
XFILLER_4_81 VGND VGND VPWR VPWR sky130_fd_sc_hd__decap_3
XTAP_TAPCELL_ROW_13_90 VGND VPWR sky130_fd_sc_hd__tapvpwrvgnd_1
X_325_ _334_/CLK _325_/D fanout55/X VGND VGND VPWR VPWR _325_/Q sky130_fd_sc_hd__dfrtp_2
X_256_ _256_/A VGND VGND VPWR VPWR _302_/D sky130_fd_sc_hd__buf_2
X_187_ _274_/A1 _179_/X _234_/A VGND VGND VPWR VPWR _254_/B sky130_fd_sc_hd__a21oi_2
XFILLER_18_57 VGND VGND VPWR VPWR sky130_fd_sc_hd__decap_3
XTAP_TAPCELL_ROW_9_80 VGND VPWR sky130_fd_sc_hd__tapvpwrvgnd_1
Xclkload0 _327_/CLK VGND VGND VPWR VPWR clkload0/X sky130_fd_sc_hd__clkbuf_4
XPHY_EDGE_ROW_3_Left_30 VGND VGND VPWR VPWR sky130_fd_sc_hd__decap_3
XFILLER_1_60 VGND VGND VPWR VPWR sky130_fd_sc_hd__decap_3
XFILLER_1_93 VGND VGND VPWR VPWR sky130_fd_sc_hd__decap_3
X_308_ _338_/CLK _308_/D fanout52/X VGND VGND VPWR VPWR _308_/Q sky130_fd_sc_hd__dfrtp_2
X_239_ _311_/D _312_/D _169_/X _255_/B VGND VGND VPWR VPWR _300_/D sky130_fd_sc_hd__o211a_2
XFILLER_20_25 VGND VGND VPWR VPWR sky130_fd_sc_hd__decap_3
Xhold67 _302_/Q VGND VGND VPWR VPWR hold67/X sky130_fd_sc_hd__dlygate4sd3_1
Xhold78 _297_/X VGND VGND VPWR VPWR _298_/B sky130_fd_sc_hd__dlygate4sd3_1
XFILLER_10_80 VGND VGND VPWR VPWR sky130_fd_sc_hd__decap_3
XFILLER_15_69 VGND VGND VPWR VPWR sky130_fd_sc_hd__decap_3
XFILLER_25_113 VGND VGND VPWR VPWR sky130_fd_sc_hd__decap_3
Xoutput13 hold61/X VGND VGND VPWR VPWR pwr_state[0] sky130_fd_sc_hd__clkdlybuf4s25_1
XPHY_EDGE_ROW_19_Right_19 VGND VGND VPWR VPWR sky130_fd_sc_hd__decap_3
Xclkbuf_3_1__f_clk clkbuf_0_clk/X VGND VGND VPWR VPWR _327_/CLK sky130_fd_sc_hd__clkbuf_16
XFILLER_7_70 VGND VGND VPWR VPWR sky130_fd_sc_hd__decap_3
XFILLER_26_57 VGND VGND VPWR VPWR sky130_fd_sc_hd__decap_3
XFILLER_9_109 VGND VGND VPWR VPWR sky130_fd_sc_hd__decap_3
XFILLER_8_120 VGND VGND VPWR VPWR sky130_fd_sc_hd__decap_3
XFILLER_8_153 VGND VGND VPWR VPWR sky130_fd_sc_hd__decap_3
XFILLER_12_48 VGND VGND VPWR VPWR sky130_fd_sc_hd__fill_1
X_272_ _272_/A _272_/B _272_/C _272_/D VGND VGND VPWR VPWR _275_/C sky130_fd_sc_hd__or4_2
XFILLER_2_137 VGND VGND VPWR VPWR sky130_fd_sc_hd__decap_3
X_324_ _337_/CLK _324_/D fanout55/X VGND VGND VPWR VPWR _324_/Q sky130_fd_sc_hd__dfrtp_2
X_255_ _258_/A _255_/B _255_/C _255_/D VGND VGND VPWR VPWR _256_/A sky130_fd_sc_hd__and4_2
X_186_ _231_/B1 _213_/A _183_/Y _184_/X _190_/A VGND VGND VPWR VPWR _186_/Y sky130_fd_sc_hd__a221oi_4
XFILLER_18_69 VGND VGND VPWR VPWR sky130_fd_sc_hd__decap_3
XFILLER_1_3 VGND VGND VPWR VPWR sky130_fd_sc_hd__decap_3
Xclkload1 _319_/CLK VGND VGND VPWR VPWR clkload1/X sky130_fd_sc_hd__clkbuf_4
X_307_ _338_/CLK _307_/D fanout52/X VGND VGND VPWR VPWR _307_/Q sky130_fd_sc_hd__dfrtp_2
X_238_ _235_/C _218_/B _313_/D VGND VGND VPWR VPWR _255_/C sky130_fd_sc_hd__a21o_2
X_169_ _169_/A VGND VGND VPWR VPWR _169_/X sky130_fd_sc_hd__buf_1
Xhold68 _304_/Q VGND VGND VPWR VPWR hold68/X sky130_fd_sc_hd__dlygate4sd3_1
Xhold79 _321_/Q VGND VGND VPWR VPWR _290_/A sky130_fd_sc_hd__dlygate4sd3_1
XTAP_TAPCELL_ROW_10_81 VGND VPWR sky130_fd_sc_hd__tapvpwrvgnd_1
XFILLER_19_111 VGND VGND VPWR VPWR sky130_fd_sc_hd__fill_1
XFILLER_19_90 VGND VGND VPWR VPWR sky130_fd_sc_hd__fill_2
XTAP_TAPCELL_ROW_6_71 VGND VPWR sky130_fd_sc_hd__tapvpwrvgnd_1
XFILLER_15_37 VGND VGND VPWR VPWR sky130_fd_sc_hd__decap_3
XFILLER_16_125 VGND VGND VPWR VPWR sky130_fd_sc_hd__decap_3
Xoutput14 hold65/X VGND VGND VPWR VPWR pwr_state[1] sky130_fd_sc_hd__clkdlybuf4s25_1
XFILLER_7_60 VGND VGND VPWR VPWR sky130_fd_sc_hd__decap_3
XFILLER_26_69 VGND VGND VPWR VPWR sky130_fd_sc_hd__decap_3
XFILLER_5_135 VGND VGND VPWR VPWR sky130_fd_sc_hd__fill_1
X_271_ _271_/A1 _223_/B _270_/X _272_/A VGND VGND VPWR VPWR _271_/X sky130_fd_sc_hd__o31a_2
XFILLER_4_72 VGND VGND VPWR VPWR sky130_fd_sc_hd__decap_3
X_323_ _335_/CLK _323_/D fanout56/X VGND VGND VPWR VPWR _323_/Q sky130_fd_sc_hd__dfrtp_2
X_254_ _248_/A _254_/B _254_/C _258_/C VGND VGND VPWR VPWR _255_/D sky130_fd_sc_hd__and4b_2
X_185_ _201_/A _272_/C _223_/C VGND VGND VPWR VPWR _190_/A sky130_fd_sc_hd__a21o_2
Xclkload2 _334_/CLK VGND VGND VPWR VPWR clkload2/X sky130_fd_sc_hd__clkbuf_4
X_306_ _319_/CLK _306_/D fanout52/X VGND VGND VPWR VPWR _306_/Q sky130_fd_sc_hd__dfrtp_2
X_237_ _310_/D _236_/Y _258_/A VGND VGND VPWR VPWR _305_/D sky130_fd_sc_hd__o21a_2
X_168_ _331_/Q _272_/C _272_/D VGND VGND VPWR VPWR _169_/A sky130_fd_sc_hd__or3_2
Xhold69 _299_/Q VGND VGND VPWR VPWR hold69/X sky130_fd_sc_hd__dlygate4sd3_1
XFILLER_13_9 VGND VGND VPWR VPWR sky130_fd_sc_hd__fill_2
XFILLER_6_29 VGND VGND VPWR VPWR sky130_fd_sc_hd__decap_3
XTAP_TAPCELL_ROW_10_82 VGND VPWR sky130_fd_sc_hd__tapvpwrvgnd_1
XFILLER_15_49 VGND VGND VPWR VPWR sky130_fd_sc_hd__decap_3
XFILLER_25_104 VGND VGND VPWR VPWR sky130_fd_sc_hd__decap_3
XTAP_TAPCELL_ROW_6_72 VGND VPWR sky130_fd_sc_hd__tapvpwrvgnd_1
XPHY_EDGE_ROW_1_Right_1 VGND VGND VPWR VPWR sky130_fd_sc_hd__decap_3
Xoutput15 hold68/X VGND VGND VPWR VPWR reset_ctrl sky130_fd_sc_hd__clkdlybuf4s25_1
XTAP_TAPCELL_ROW_26_121 VGND VPWR sky130_fd_sc_hd__tapvpwrvgnd_1
XFILLER_22_107 VGND VGND VPWR VPWR sky130_fd_sc_hd__decap_3
XFILLER_26_37 VGND VGND VPWR VPWR sky130_fd_sc_hd__decap_3
XFILLER_26_48 VGND VGND VPWR VPWR sky130_fd_sc_hd__decap_3
XFILLER_16_81 VGND VGND VPWR VPWR sky130_fd_sc_hd__decap_3
XFILLER_8_111 VGND VGND VPWR VPWR sky130_fd_sc_hd__decap_3
XPHY_EDGE_ROW_19_Left_46 VGND VGND VPWR VPWR sky130_fd_sc_hd__decap_3
X_270_ _309_/Q _270_/B VGND VGND VPWR VPWR _270_/X sky130_fd_sc_hd__and2b_2
XFILLER_4_51 VGND VGND VPWR VPWR sky130_fd_sc_hd__decap_3
XFILLER_2_106 VGND VGND VPWR VPWR sky130_fd_sc_hd__fill_2
X_322_ _335_/CLK _322_/D fanout56/X VGND VGND VPWR VPWR _322_/Q sky130_fd_sc_hd__dfrtp_2
XFILLER_13_60 VGND VGND VPWR VPWR sky130_fd_sc_hd__decap_3
Xclkbuf_3_7__f_clk clkbuf_0_clk/X VGND VGND VPWR VPWR _335_/CLK sky130_fd_sc_hd__clkbuf_16
Xfanout50 fanout51/X VGND VGND VPWR VPWR fanout50/X sky130_fd_sc_hd__clkdlybuf4s25_1
X_253_ _253_/A VGND VGND VPWR VPWR _303_/D sky130_fd_sc_hd__buf_4
X_184_ _270_/B _222_/A _213_/A VGND VGND VPWR VPWR _184_/X sky130_fd_sc_hd__or3_4
XFILLER_18_16 VGND VGND VPWR VPWR sky130_fd_sc_hd__decap_3
Xclkload3 _337_/CLK VGND VGND VPWR VPWR clkload3/X sky130_fd_sc_hd__clkbuf_4
X_305_ _319_/CLK _305_/D fanout52/X VGND VGND VPWR VPWR _305_/Q sky130_fd_sc_hd__dfrtp_2
X_236_ _258_/C _235_/Y _311_/D VGND VGND VPWR VPWR _236_/Y sky130_fd_sc_hd__a21oi_2
X_167_ _271_/A1 _223_/C VGND VGND VPWR VPWR _272_/D sky130_fd_sc_hd__nand2b_2
XFILLER_1_52 VGND VGND VPWR VPWR sky130_fd_sc_hd__decap_3
XFILLER_1_63 VGND VGND VPWR VPWR sky130_fd_sc_hd__decap_3
XFILLER_1_96 VGND VGND VPWR VPWR sky130_fd_sc_hd__decap_3
XFILLER_10_50 VGND VGND VPWR VPWR sky130_fd_sc_hd__decap_3
XFILLER_10_83 VGND VGND VPWR VPWR sky130_fd_sc_hd__fill_1
XFILLER_10_94 VGND VGND VPWR VPWR sky130_fd_sc_hd__decap_3
XFILLER_19_113 VGND VGND VPWR VPWR sky130_fd_sc_hd__fill_1
Xhold59 _338_/Q VGND VGND VPWR VPWR hold59/X sky130_fd_sc_hd__dlygate4sd3_1
XTAP_TAPCELL_ROW_10_83 VGND VPWR sky130_fd_sc_hd__tapvpwrvgnd_1
XPHY_EDGE_ROW_7_Left_34 VGND VGND VPWR VPWR sky130_fd_sc_hd__decap_3
XFILLER_19_135 VGND VGND VPWR VPWR sky130_fd_sc_hd__fill_1
X_219_ _219_/A VGND VGND VPWR VPWR _314_/D sky130_fd_sc_hd__inv_2
XTAP_TAPCELL_ROW_6_73 VGND VPWR sky130_fd_sc_hd__tapvpwrvgnd_1
XFILLER_25_116 VGND VGND VPWR VPWR sky130_fd_sc_hd__decap_3
Xoutput16 hold62/X VGND VGND VPWR VPWR retention_en sky130_fd_sc_hd__clkdlybuf4s25_1
XTAP_TAPCELL_ROW_26_122 VGND VPWR sky130_fd_sc_hd__tapvpwrvgnd_1
Xclkbuf_0_clk clk VGND VGND VPWR VPWR clkbuf_0_clk/X sky130_fd_sc_hd__clkbuf_16
XTAP_TAPCELL_ROW_17_100 VGND VPWR sky130_fd_sc_hd__tapvpwrvgnd_1
XFILLER_26_27 VGND VGND VPWR VPWR sky130_fd_sc_hd__fill_1
XFILLER_7_73 VGND VGND VPWR VPWR sky130_fd_sc_hd__decap_3
XPHY_EDGE_ROW_15_Right_15 VGND VGND VPWR VPWR sky130_fd_sc_hd__decap_3
XPHY_EDGE_ROW_24_Right_24 VGND VGND VPWR VPWR sky130_fd_sc_hd__decap_3
XTAP_TAPCELL_ROW_23_114 VGND VPWR sky130_fd_sc_hd__tapvpwrvgnd_1
XFILLER_12_141 VGND VGND VPWR VPWR sky130_fd_sc_hd__decap_3
XFILLER_8_156 VGND VGND VPWR VPWR sky130_fd_sc_hd__fill_1
XTAP_TAPCELL_ROW_20_106 VGND VPWR sky130_fd_sc_hd__tapvpwrvgnd_1
XFILLER_4_85 VGND VGND VPWR VPWR sky130_fd_sc_hd__decap_3
XPHY_EDGE_ROW_20_Left_47 VGND VGND VPWR VPWR sky130_fd_sc_hd__decap_3
Xfanout40 _314_/Q VGND VGND VPWR VPWR _263_/B1 sky130_fd_sc_hd__clkdlybuf4s25_1
Xfanout51 fanout54/X VGND VGND VPWR VPWR fanout51/X sky130_fd_sc_hd__clkdlybuf4s25_1
X_321_ _335_/CLK _321_/D fanout56/X VGND VGND VPWR VPWR _321_/Q sky130_fd_sc_hd__dfrtp_2
X_252_ _252_/A _252_/B _315_/D _252_/D VGND VGND VPWR VPWR _253_/A sky130_fd_sc_hd__and4_2
X_183_ _183_/A _211_/B VGND VGND VPWR VPWR _183_/Y sky130_fd_sc_hd__nand2_2
XFILLER_1_6 VGND VGND VPWR VPWR sky130_fd_sc_hd__fill_2
Xclkload4 _336_/CLK VGND VGND VPWR VPWR clkload4/X sky130_fd_sc_hd__clkbuf_4
X_304_ _338_/CLK _304_/D fanout52/X VGND VGND VPWR VPWR _304_/Q sky130_fd_sc_hd__dfrtp_2
X_235_ _235_/A _251_/A _235_/C VGND VGND VPWR VPWR _235_/Y sky130_fd_sc_hd__nand3_2
XFILLER_20_29 VGND VGND VPWR VPWR sky130_fd_sc_hd__decap_3
XPHY_EDGE_ROW_23_Left_50 VGND VGND VPWR VPWR sky130_fd_sc_hd__decap_3
X_166_ _163_/Y _165_/Y _201_/A VGND VGND VPWR VPWR _265_/B sky130_fd_sc_hd__a21oi_2
XFILLER_19_60 VGND VGND VPWR VPWR sky130_fd_sc_hd__decap_3
X_218_ _235_/C _218_/B VGND VGND VPWR VPWR _219_/A sky130_fd_sc_hd__nand2_2
X_149_ _335_/Q VGND VGND VPWR VPWR _151_/C sky130_fd_sc_hd__inv_2
Xoutput17 hold64/X VGND VGND VPWR VPWR retention_restore sky130_fd_sc_hd__clkdlybuf4s25_1
XFILLER_16_128 VGND VGND VPWR VPWR sky130_fd_sc_hd__decap_3
XTAP_TAPCELL_ROW_26_123 VGND VPWR sky130_fd_sc_hd__tapvpwrvgnd_1
XFILLER_7_63 VGND VGND VPWR VPWR sky130_fd_sc_hd__fill_1
XFILLER_16_50 VGND VGND VPWR VPWR sky130_fd_sc_hd__decap_3
XFILLER_8_102 VGND VGND VPWR VPWR sky130_fd_sc_hd__decap_3
XTAP_TAPCELL_ROW_23_115 VGND VPWR sky130_fd_sc_hd__tapvpwrvgnd_1
XFILLER_12_19 VGND VGND VPWR VPWR sky130_fd_sc_hd__fill_1
XTAP_TAPCELL_ROW_3_64 VGND VPWR sky130_fd_sc_hd__tapvpwrvgnd_1
XTAP_TAPCELL_ROW_20_107 VGND VPWR sky130_fd_sc_hd__tapvpwrvgnd_1
XFILLER_4_42 VGND VGND VPWR VPWR sky130_fd_sc_hd__decap_3
XFILLER_4_75 VGND VGND VPWR VPWR sky130_fd_sc_hd__fill_1
XFILLER_4_97 VGND VGND VPWR VPWR sky130_fd_sc_hd__fill_2
Xfanout30 _329_/Q VGND VGND VPWR VPWR _222_/A sky130_fd_sc_hd__clkdlybuf4s25_1
Xfanout41 _313_/Q VGND VGND VPWR VPWR _205_/A sky130_fd_sc_hd__clkdlybuf4s25_1
Xfanout52 fanout53/X VGND VGND VPWR VPWR fanout52/X sky130_fd_sc_hd__clkdlybuf4s25_1
X_320_ _336_/CLK _320_/D fanout57/X VGND VGND VPWR VPWR _320_/Q sky130_fd_sc_hd__dfrtp_2
X_251_ _251_/A _258_/C _254_/B VGND VGND VPWR VPWR _252_/D sky130_fd_sc_hd__and3_2
X_182_ _194_/B _213_/A _205_/A _335_/Q VGND VGND VPWR VPWR _183_/A sky130_fd_sc_hd__and4_2
XTAP_TAPCELL_ROW_0_54 VGND VPWR sky130_fd_sc_hd__tapvpwrvgnd_1
XFILLER_18_29 VGND VGND VPWR VPWR sky130_fd_sc_hd__decap_3
Xclkload5 _335_/CLK VGND VGND VPWR VPWR clkload5/X sky130_fd_sc_hd__clkbuf_4
XFILLER_1_43 VGND VGND VPWR VPWR sky130_fd_sc_hd__decap_3
X_303_ _327_/CLK _303_/D fanout51/X VGND VGND VPWR VPWR _303_/Q sky130_fd_sc_hd__dfrtp_2
X_234_ _234_/A _255_/B VGND VGND VPWR VPWR _338_/D sky130_fd_sc_hd__nand2_2
X_165_ _164_/X _205_/A _312_/Q _229_/C VGND VGND VPWR VPWR _165_/Y sky130_fd_sc_hd__a211oi_2
XFILLER_10_41 VGND VGND VPWR VPWR sky130_fd_sc_hd__decap_3
XFILLER_10_85 VGND VGND VPWR VPWR sky130_fd_sc_hd__decap_3
XFILLER_19_72 VGND VGND VPWR VPWR sky130_fd_sc_hd__decap_3
X_217_ _272_/A _214_/Y _216_/Y VGND VGND VPWR VPWR _235_/A sky130_fd_sc_hd__o21ai_2
X_148_ _280_/A _319_/Q _248_/A _277_/A VGND VGND VPWR VPWR _284_/A sky130_fd_sc_hd__nand4_2
XFILLER_25_107 VGND VGND VPWR VPWR sky130_fd_sc_hd__decap_3
XFILLER_25_3 VGND VGND VPWR VPWR sky130_fd_sc_hd__fill_1
Xoutput18 hold67/X VGND VGND VPWR VPWR retention_save sky130_fd_sc_hd__clkdlybuf4s25_1
XTAP_TAPCELL_ROW_26_124 VGND VPWR sky130_fd_sc_hd__tapvpwrvgnd_1
XFILLER_7_31 VGND VGND VPWR VPWR sky130_fd_sc_hd__decap_3
XPHY_EDGE_ROW_5_Right_5 VGND VGND VPWR VPWR sky130_fd_sc_hd__decap_3
XFILLER_8_114 VGND VGND VPWR VPWR sky130_fd_sc_hd__decap_3
XTAP_TAPCELL_ROW_3_65 VGND VPWR sky130_fd_sc_hd__tapvpwrvgnd_1
XTAP_TAPCELL_ROW_20_108 VGND VPWR sky130_fd_sc_hd__tapvpwrvgnd_1
XFILLER_4_54 VGND VGND VPWR VPWR sky130_fd_sc_hd__decap_3
XFILLER_13_63 VGND VGND VPWR VPWR sky130_fd_sc_hd__fill_2
Xfanout31 _328_/Q VGND VGND VPWR VPWR _270_/B sky130_fd_sc_hd__clkdlybuf4s25_1
Xfanout42 _313_/Q VGND VGND VPWR VPWR _211_/C sky130_fd_sc_hd__clkdlybuf4s25_1
Xfanout53 fanout54/X VGND VGND VPWR VPWR fanout53/X sky130_fd_sc_hd__clkdlybuf4s25_1
X_250_ _235_/C _218_/B _249_/X VGND VGND VPWR VPWR _252_/B sky130_fd_sc_hd__a21oi_2